data_twin
_symmetry_space_group_name_H-M 'P 1'
_cell_length_a 4.303918
_cell_length_b 32.067551
_cell_length_c 60.000000
_cell_angle_alpha 90.0
_cell_angle_beta 90.0
_cell_angle_gamma 93.847843
loop_
_atom_site_label
_atom_site_type_symbol
_atom_site_fract_x
_atom_site_fract_y
_atom_site_fract_z
Te_0       Te   0.479643   0.959286   0.154228
Te_1       Te   0.372392   0.744784   0.167644
Sb_2       Sb   0.284430   0.568861   0.178648
Sb_3       Sb   0.951097   0.902194   0.178648
Sb_4       Sb   0.181642   0.363283   0.191506
Sb_5       Sb   0.848308   0.696617   0.191506
Te_6       Te   0.093680   0.187360   0.202510
Te_7       Te   0.427013   0.854027   0.202510
Te_8       Te   0.760347   0.520694   0.202510
Te_9       Te   0.653095   0.306191   0.215927
Te_10      Te   0.319762   0.639524   0.215927
Te_11      Te   0.986429   0.972858   0.215927
Te_12      Te   0.545844   0.091688   0.229343
Te_13      Te   0.212511   0.425022   0.229343
Te_14      Te   0.879177   0.758355   0.229343
Sb_15      Sb   0.457883   0.915765   0.240347
Sb_16      Sb   0.791216   0.582432   0.240347
Sb_17      Sb   0.124549   0.249099   0.240347
Sb_18      Sb   0.355094   0.710188   0.253205
Sb_19      Sb   0.688427   0.376855   0.253205
Sb_20      Sb   0.021761   0.043521   0.253205
Te_21      Te   0.267132   0.534265   0.264209
Te_22      Te   0.600466   0.200931   0.264209
Te_23      Te   0.933799   0.867598   0.264209
Te_24      Te   0.159881   0.319762   0.277625
Te_25      Te   0.493214   0.986429   0.277625
Te_26      Te   0.826548   0.653095   0.277625
Te_27      Te   0.052630   0.105259   0.291042
Te_28      Te   0.385963   0.771926   0.291042
Te_29      Te   0.719296   0.438593   0.291042
Sb_30      Sb   0.298002   0.596003   0.302045
Sb_31      Sb   0.631335   0.262670   0.302045
Sb_32      Sb   0.964668   0.929336   0.302045
Sb_33      Sb   0.195213   0.390426   0.314904
Sb_34      Sb   0.861880   0.723759   0.314904
Sb_35      Sb   0.528546   0.057092   0.314904
Te_36      Te   0.773918   0.547836   0.325907
Te_37      Te   0.107251   0.214503   0.325907
Te_38      Te   0.440585   0.881169   0.325907
Te_39      Te   0.666667   0.333333   0.339324
Te_40      Te   0.333333   0.666667   0.339324
Te_41      Te   0.000000  -0.000000   0.339324
Te_42      Te   0.559415   0.118831   0.352741
Te_43      Te   0.226082   0.452164   0.352741
Te_44      Te   0.892749   0.785497   0.352741
Sb_45      Sb   0.804787   0.609574   0.363744
Sb_46      Sb   0.138120   0.276241   0.363744
Sb_47      Sb   0.471454   0.942908   0.363744
Sb_48      Sb   0.035332   0.070664   0.376603
Sb_49      Sb   0.368665   0.737330   0.376603
Sb_50      Sb   0.701998   0.403997   0.376603
Te_51      Te   0.280704   0.561407   0.387606
Te_52      Te   0.947370   0.894741   0.387606
Te_53      Te   0.614037   0.228074   0.387606
Te_54      Te   0.173452   0.346905   0.401023
Te_55      Te   0.840119   0.680238   0.401023
Te_56      Te   0.506786   0.013571   0.401023
Te_57      Te   0.066201   0.132402   0.414439
Te_58      Te   0.732868   0.465735   0.414439
Te_59      Te   0.399534   0.799069   0.414439
Sb_60      Sb   0.311573   0.623145   0.425443
Sb_61      Sb   0.644906   0.289812   0.425443
Sb_62      Sb   0.978239   0.956479   0.425443
Sb_63      Sb   0.208784   0.417568   0.438301
Sb_64      Sb   0.542117   0.084235   0.438301
Sb_65      Sb   0.875451   0.750901   0.438301
Te_66      Te   0.120823   0.241645   0.449305
Te_67      Te   0.787489   0.574978   0.449305
Te_68      Te   0.454156   0.908312   0.449305
Te_69      Te   0.680238   0.360476   0.462721
Te_70      Te   0.013571   0.027142   0.462721
Te_71      Te   0.346905   0.693809   0.462721
Te_72      Te   0.572987   0.145973   0.476138
Te_73      Te   0.239653   0.479306   0.476138
Sb_74      Sb   0.151692   0.303383   0.487142
Sb_twin_75 Sb   0.048903   0.097806   0.500000
Te_76      Te   0.479643   0.959286   0.845772
Te_77      Te   0.372392   0.744784   0.832356
Sb_78      Sb   0.284430   0.568861   0.821352
Sb_79      Sb   0.951097   0.902194   0.821352
Sb_80      Sb   0.181642   0.363283   0.808494
Sb_81      Sb   0.848308   0.696617   0.808494
Te_82      Te   0.093680   0.187360   0.797490
Te_83      Te   0.427013   0.854027   0.797490
Te_84      Te   0.760347   0.520694   0.797490
Te_85      Te   0.653095   0.306191   0.784073
Te_86      Te   0.319762   0.639524   0.784073
Te_87      Te   0.986429   0.972858   0.784073
Te_88      Te   0.545844   0.091688   0.770657
Te_89      Te   0.212511   0.425022   0.770657
Te_90      Te   0.879177   0.758355   0.770657
Sb_91      Sb   0.457883   0.915765   0.759653
Sb_92      Sb   0.791216   0.582432   0.759653
Sb_93      Sb   0.124549   0.249099   0.759653
Sb_94      Sb   0.355094   0.710188   0.746795
Sb_95      Sb   0.688427   0.376855   0.746795
Sb_96      Sb   0.021761   0.043521   0.746795
Te_97      Te   0.267132   0.534265   0.735791
Te_98      Te   0.600466   0.200931   0.735791
Te_99      Te   0.933799   0.867598   0.735791
Te_100     Te   0.159881   0.319762   0.722375
Te_101     Te   0.493214   0.986429   0.722375
Te_102     Te   0.826548   0.653095   0.722375
Te_103     Te   0.052630   0.105259   0.708958
Te_104     Te   0.385963   0.771926   0.708958
Te_105     Te   0.719296   0.438593   0.708958
Sb_106     Sb   0.298002   0.596003   0.697955
Sb_107     Sb   0.631335   0.262670   0.697955
Sb_108     Sb   0.964668   0.929336   0.697955
Sb_109     Sb   0.195213   0.390426   0.685096
Sb_110     Sb   0.861880   0.723759   0.685096
Sb_111     Sb   0.528546   0.057092   0.685096
Te_112     Te   0.773918   0.547836   0.674093
Te_113     Te   0.107251   0.214503   0.674093
Te_114     Te   0.440585   0.881169   0.674093
Te_115     Te   0.666667   0.333333   0.660676
Te_116     Te   0.333333   0.666667   0.660676
Te_117     Te   0.000000  -0.000000   0.660676
Te_118     Te   0.559415   0.118831   0.647259
Te_119     Te   0.226082   0.452164   0.647259
Te_120     Te   0.892749   0.785497   0.647259
Sb_121     Sb   0.804787   0.609574   0.636256
Sb_122     Sb   0.138120   0.276241   0.636256
Sb_123     Sb   0.471454   0.942908   0.636256
Sb_124     Sb   0.035332   0.070664   0.623397
Sb_125     Sb   0.368665   0.737330   0.623397
Sb_126     Sb   0.701998   0.403997   0.623397
Te_127     Te   0.280704   0.561407   0.612394
Te_128     Te   0.947370   0.894741   0.612394
Te_129     Te   0.614037   0.228074   0.612394
Te_130     Te   0.173452   0.346905   0.598977
Te_131     Te   0.840119   0.680238   0.598977
Te_132     Te   0.506786   0.013571   0.598977
Te_133     Te   0.066201   0.132402   0.585561
Te_134     Te   0.732868   0.465735   0.585561
Te_135     Te   0.399534   0.799069   0.585561
Sb_136     Sb   0.311573   0.623145   0.574557
Sb_137     Sb   0.644906   0.289812   0.574557
Sb_138     Sb   0.978239   0.956479   0.574557
Sb_139     Sb   0.208784   0.417568   0.561699
Sb_140     Sb   0.542117   0.084235   0.561699
Sb_141     Sb   0.875451   0.750901   0.561699
Te_142     Te   0.120823   0.241645   0.550695
Te_143     Te   0.787489   0.574978   0.550695
Te_144     Te   0.454156   0.908312   0.550695
Te_145     Te   0.680238   0.360476   0.537279
Te_146     Te   0.013571   0.027142   0.537279
Te_147     Te   0.346905   0.693809   0.537279
Te_148     Te   0.572987   0.145973   0.523862
Te_149     Te   0.239653   0.479306   0.523862
Sb_150     Sb   0.151692   0.303383   0.512858
