data_faulted
_symmetry_space_group_name_H-M   'P 1'
_cell_length_a     17.215672
_cell_length_b     17.215672
_cell_length_c     31.777415
_cell_angle_alpha  90.0
_cell_angle_beta   90.0
_cell_angle_gamma  120.000000
loop_
 _atom_site_label
 _atom_site_type_symbol
 _atom_site_fract_x
 _atom_site_fract_y
 _atom_site_fract_z
 Te1 Te   0.000000   0.000000   0.000000
 Te2 Te   0.000000   0.250000   0.000000
 Te3 Te   0.000000   0.500000   0.000000
 Te4 Te   0.000000   0.750000   0.000000
 Te5 Te   0.250000   0.000000   0.000000
 Te6 Te   0.250000   0.250000   0.000000
 Te7 Te   0.250000   0.500000   0.000000
 Te8 Te   0.250000   0.750000   0.000000
 Te9 Te   0.500000   0.000000   0.000000
 Te10 Te   0.500000   0.250000   0.000000
 Te11 Te   0.500000   0.500000   0.000000
 Te12 Te   0.500000   0.750000   0.000000
 Te13 Te   0.750000   0.000000   0.000000
 Te14 Te   0.750000   0.250000   0.000000
 Te15 Te   0.750000   0.500000   0.000000
 Te16 Te   0.750000   0.750000   0.000000
 Sb17 Sb   0.083333   0.166667   0.062464
 Sb18 Sb   0.083333   0.416667   0.062464
 Sb19 Sb   0.083333   0.666667   0.062464
 Sb20 Sb   0.083333   0.916667   0.062464
 Sb21 Sb   0.333333   0.166667   0.062464
 Sb22 Sb   0.333333   0.416667   0.062464
 Sb23 Sb   0.333333   0.666667   0.062464
 Sb24 Sb   0.333333   0.916667   0.062464
 Sb25 Sb   0.583333   0.166667   0.062464
 Sb26 Sb   0.583333   0.416667   0.062464
 Sb27 Sb   0.583333   0.666667   0.062464
 Sb28 Sb   0.583333   0.916667   0.062464
 Sb29 Sb   0.833333   0.166667   0.062464
 Sb30 Sb   0.833333   0.416667   0.062464
 Sb31 Sb   0.833333   0.666667   0.062464
 Sb32 Sb   0.833333   0.916667   0.062464
 Te33 Te   0.166667   0.083333   0.115880
 Te34 Te   0.166667   0.333333   0.115880
 Te35 Te   0.166667   0.583333   0.115880
 Te36 Te   0.166667   0.833333   0.115880
 Te37 Te   0.416667   0.083333   0.115880
 Te38 Te   0.416667   0.333333   0.115880
 Te39 Te   0.416667   0.583333   0.115880
 Te40 Te   0.416667   0.833333   0.115880
 Te41 Te   0.666667   0.083333   0.115880
 Te42 Te   0.666667   0.333333   0.115880
 Te43 Te   0.666667   0.583333   0.115880
 Te44 Te   0.666667   0.833333   0.115880
 Te45 Te   0.916667   0.083333   0.115880
 Te46 Te   0.916667   0.333333   0.115880
 Te47 Te   0.916667   0.583333   0.115880
 Te48 Te   0.916667   0.833333   0.115880
 Te49 Te   0.333333   0.666667   0.217454
 Te50 Te   0.333333   0.916667   0.217454
 Te51 Te   0.333333   1.166667   0.217454
 Te52 Te   0.333333   1.416667   0.217454
 Te53 Te   0.583333   0.666667   0.217454
 Te54 Te   0.583333   0.916667   0.217454
 Te55 Te   0.583333   1.166667   0.217454
 Te56 Te   0.583333   1.416667   0.217454
 Te57 Te   0.833333   0.666667   0.217454
 Te58 Te   0.833333   0.916667   0.217454
 Te59 Te   0.833333   1.166667   0.217454
 Te60 Te   0.833333   1.416667   0.217454
 Te61 Te   1.083333   0.666667   0.217454
 Te62 Te   1.083333   0.916667   0.217454
 Te63 Te   1.083333   1.166667   0.217454
 Te64 Te   1.083333   1.416667   0.217454
 Sb65 Sb   0.416667   0.833333   0.270869
 Sb66 Sb   0.416667   1.083333   0.270869
 Sb67 Sb   0.416667   1.333333   0.270869
 Sb68 Sb   0.416667   1.583333   0.270869
 Sb69 Sb   0.666667   0.833333   0.270869
 Sb70 Sb   0.666667   1.083333   0.270869
 Sb71 Sb   0.666667   1.333333   0.270869
 Sb72 Sb   0.666667   1.583333   0.270869
 Sb73 Sb   0.916667   0.833333   0.270869
 Sb74 Sb   0.916667   1.083333   0.270869
 Sb75 Sb   0.916667   1.333333   0.270869
 Sb76 Sb   0.916667   1.583333   0.270869
 Sb77 Sb   1.166667   0.833333   0.270869
 Sb78 Sb   1.166667   1.083333   0.270869
 Sb79 Sb   1.166667   1.333333   0.270869
 Sb80 Sb   1.166667   1.583333   0.270869
 Te81 Te   0.500000   0.750000   0.333333
 Te82 Te   0.500000   1.000000   0.333333
 Te83 Te   0.500000   1.250000   0.333333
 Te84 Te   0.500000   1.500000   0.333333
 Te85 Te   0.750000   0.750000   0.333333
 Te86 Te   0.750000   1.000000   0.333333
 Te87 Te   0.750000   1.250000   0.333333
 Te88 Te   0.750000   1.500000   0.333333
 Te89 Te   1.000000   0.750000   0.333333
 Te90 Te   1.000000   1.000000   0.333333
 Te91 Te   1.000000   1.250000   0.333333
 Te92 Te   1.000000   1.500000   0.333333
 Te93 Te   1.250000   0.750000   0.333333
 Te94 Te   1.250000   1.000000   0.333333
 Te95 Te   1.250000   1.250000   0.333333
 Te96 Te   1.250000   1.500000   0.333333
 Sb97 Sb   0.333333   0.666667   0.395797
 Sb98 Sb   0.333333   0.916667   0.395797
 Sb99 Sb   0.333333   1.166667   0.395797
 Sb100 Sb   0.333333   1.416667   0.395797
 Sb101 Sb   0.583333   0.666667   0.395797
 Sb102 Sb   0.583333   0.916667   0.395797
 Sb103 Sb   0.583333   1.166667   0.395797
 Sb104 Sb   0.583333   1.416667   0.395797
 Sb105 Sb   0.833333   0.666667   0.395797
 Sb106 Sb   0.833333   0.916667   0.395797
 Sb107 Sb   0.833333   1.166667   0.395797
 Sb108 Sb   0.833333   1.416667   0.395797
 Sb109 Sb   1.083333   0.666667   0.395797
 Sb110 Sb   1.083333   0.916667   0.395797
 Sb111 Sb   1.083333   1.166667   0.395797
 Sb112 Sb   1.083333   1.416667   0.395797
 Te113 Te   0.416667   0.833333   0.449213
 Te114 Te   0.416667   1.083333   0.449213
 Te115 Te   0.416667   1.333333   0.449213
 Te116 Te   0.416667   1.583333   0.449213
 Te117 Te   0.666667   0.833333   0.449213
 Te118 Te   0.666667   1.083333   0.449213
 Te119 Te   0.666667   1.333333   0.449213
 Te120 Te   0.666667   1.583333   0.449213
 Te121 Te   0.916667   0.833333   0.449213
 Te122 Te   0.916667   1.083333   0.449213
 Te123 Te   0.916667   1.333333   0.449213
 Te124 Te   0.916667   1.583333   0.449213
 Te125 Te   1.166667   0.833333   0.449213
 Te126 Te   1.166667   1.083333   0.449213
 Te127 Te   1.166667   1.333333   0.449213
 Te128 Te   1.166667   1.583333   0.449213
 Te129 Te   0.500000   0.750000   0.550787
 Te130 Te   0.500000   1.000000   0.550787
 Te131 Te   0.500000   1.250000   0.550787
 Te132 Te   0.500000   1.500000   0.550787
 Te133 Te   0.750000   0.750000   0.550787
 Te134 Te   0.750000   1.000000   0.550787
 Te135 Te   0.750000   1.250000   0.550787
 Te136 Te   0.750000   1.500000   0.550787
 Te137 Te   1.000000   0.750000   0.550787
 Te138 Te   1.000000   1.000000   0.550787
 Te139 Te   1.000000   1.250000   0.550787
 Te140 Te   1.000000   1.500000   0.550787
 Te141 Te   1.250000   0.750000   0.550787
 Te142 Te   1.250000   1.000000   0.550787
 Te143 Te   1.250000   1.250000   0.550787
 Te144 Te   1.250000   1.500000   0.550787
 Sb145 Sb   0.333333   0.666667   0.604203
 Sb146 Sb   0.333333   0.916667   0.604203
 Sb147 Sb   0.333333   1.166667   0.604203
 Sb148 Sb   0.333333   1.416667   0.604203
 Sb149 Sb   0.583333   0.666667   0.604203
 Sb150 Sb   0.583333   0.916667   0.604203
 Sb151 Sb   0.583333   1.166667   0.604203
 Sb152 Sb   0.583333   1.416667   0.604203
 Sb153 Sb   0.833333   0.666667   0.604203
 Sb154 Sb   0.833333   0.916667   0.604203
 Sb155 Sb   0.833333   1.166667   0.604203
 Sb156 Sb   0.833333   1.416667   0.604203
 Sb157 Sb   1.083333   0.666667   0.604203
 Sb158 Sb   1.083333   0.916667   0.604203
 Sb159 Sb   1.083333   1.166667   0.604203
 Sb160 Sb   1.083333   1.416667   0.604203
 Te161 Te   0.416667   0.833333   0.666667
 Te162 Te   0.416667   1.083333   0.666667
 Te163 Te   0.416667   1.333333   0.666667
 Te164 Te   0.416667   1.583333   0.666667
 Te165 Te   0.666667   0.833333   0.666667
 Te166 Te   0.666667   1.083333   0.666667
 Te167 Te   0.666667   1.333333   0.666667
 Te168 Te   0.666667   1.583333   0.666667
 Te169 Te   0.916667   0.833333   0.666667
 Te170 Te   0.916667   1.083333   0.666667
 Te171 Te   0.916667   1.333333   0.666667
 Te172 Te   0.916667   1.583333   0.666667
 Te173 Te   1.166667   0.833333   0.666667
 Te174 Te   1.166667   1.083333   0.666667
 Te175 Te   1.166667   1.333333   0.666667
 Te176 Te   1.166667   1.583333   0.666667
 Sb177 Sb   0.500000   0.750000   0.729131
 Sb178 Sb   0.500000   1.000000   0.729131
 Sb179 Sb   0.500000   1.250000   0.729131
 Sb180 Sb   0.500000   1.500000   0.729131
 Sb181 Sb   0.750000   0.750000   0.729131
 Sb182 Sb   0.750000   1.000000   0.729131
 Sb183 Sb   0.750000   1.250000   0.729131
 Sb184 Sb   0.750000   1.500000   0.729131
 Sb185 Sb   1.000000   0.750000   0.729131
 Sb186 Sb   1.000000   1.000000   0.729131
 Sb187 Sb   1.000000   1.250000   0.729131
 Sb188 Sb   1.000000   1.500000   0.729131
 Sb189 Sb   1.250000   0.750000   0.729131
 Sb190 Sb   1.250000   1.000000   0.729131
 Sb191 Sb   1.250000   1.250000   0.729131
 Sb192 Sb   1.250000   1.500000   0.729131
 Te193 Te   0.333333   0.666667   0.782546
 Te194 Te   0.333333   0.916667   0.782546
 Te195 Te   0.333333   1.166667   0.782546
 Te196 Te   0.333333   1.416667   0.782546
 Te197 Te   0.583333   0.666667   0.782546
 Te198 Te   0.583333   0.916667   0.782546
 Te199 Te   0.583333   1.166667   0.782546
 Te200 Te   0.583333   1.416667   0.782546
 Te201 Te   0.833333   0.666667   0.782546
 Te202 Te   0.833333   0.916667   0.782546
 Te203 Te   0.833333   1.166667   0.782546
 Te204 Te   0.833333   1.416667   0.782546
 Te205 Te   1.083333   0.666667   0.782546
 Te206 Te   1.083333   0.916667   0.782546
 Te207 Te   1.083333   1.166667   0.782546
 Te208 Te   1.083333   1.416667   0.782546
