data_slab
_symmetry_space_group_name_H-M   'P 1'
_symmetry_Int_Tables_number      1
_symmetry_cell_setting           triclinic
_cell_length_a     17.215672
_cell_length_b     17.215672
_cell_length_c     64.734592
_cell_angle_alpha  90.000000
_cell_angle_beta   90.000000
_cell_angle_gamma  120.000000
loop_
 _atom_site_label
 _atom_site_type_symbol
 _atom_site_fract_x
 _atom_site_fract_y
 _atom_site_fract_z
 Te_surf_1  Te  -0.500000   0.000000   0.115858
 Te_surf_2  Te  -0.500000   0.250000   0.115858
 Te_surf_3  Te  -0.500000   0.500000   0.115858
 Te_surf_4  Te  -0.500000   0.750000   0.115858
 Te_surf_5  Te  -0.250000   0.000000   0.115858
 Te_surf_6  Te  -0.250000   0.250000   0.115858
 Te_surf_7  Te  -0.250000   0.500000   0.115858
 Te_surf_8  Te  -0.250000   0.750000   0.115858
 Te_surf_9  Te   0.000000   0.000000   0.115858
 Te_surf_10 Te   0.000000   0.250000   0.115858
 Te_surf_11 Te   0.000000   0.500000   0.115858
 Te_surf_12 Te   0.000000   0.750000   0.115858
 Te_surf_13 Te   0.250000   0.000000   0.115858
 Te_surf_14 Te   0.250000   0.250000   0.115858
 Te_surf_15 Te   0.250000   0.500000   0.115858
 Te_surf_16 Te   0.250000   0.750000   0.115858
 Sb17       Sb  -0.416667   0.166667   0.142079
 Sb18       Sb  -0.416667   0.416667   0.142079
 Sb19       Sb  -0.416667   0.666667   0.142079
 Sb20       Sb  -0.416667   0.916667   0.142079
 Sb21       Sb  -0.166667   0.166667   0.142079
 Sb22       Sb  -0.166667   0.416667   0.142079
 Sb23       Sb  -0.166667   0.666667   0.142079
 Sb24       Sb  -0.166667   0.916667   0.142079
 Sb25       Sb   0.083333   0.166667   0.142079
 Sb26       Sb   0.083333   0.416667   0.142079
 Sb27       Sb   0.083333   0.666667   0.142079
 Sb28       Sb   0.083333   0.916667   0.142079
 Sb29       Sb   0.333333   0.166667   0.142079
 Sb30       Sb   0.333333   0.416667   0.142079
 Sb31       Sb   0.333333   0.666667   0.142079
 Sb32       Sb   0.333333   0.916667   0.142079
 Te33       Te  -0.333333   0.083333   0.172742
 Te34       Te  -0.333333   0.333333   0.172742
 Te35       Te  -0.333333   0.583333   0.172742
 Te36       Te  -0.333333   0.833333   0.172742
 Te37       Te  -0.083333   0.083333   0.172742
 Te38       Te  -0.083333   0.333333   0.172742
 Te39       Te  -0.083333   0.583333   0.172742
 Te40       Te  -0.083333   0.833333   0.172742
 Te41       Te   0.166667   0.083333   0.172742
 Te42       Te   0.166667   0.333333   0.172742
 Te43       Te   0.166667   0.583333   0.172742
 Te44       Te   0.166667   0.833333   0.172742
 Te45       Te   0.416667   0.083333   0.172742
 Te46       Te   0.416667   0.333333   0.172742
 Te47       Te   0.416667   0.583333   0.172742
 Te48       Te   0.416667   0.833333   0.172742
 Sb49       Sb  -0.500000   0.000000   0.203404
 Sb50       Sb  -0.500000   0.250000   0.203404
 Sb51       Sb  -0.500000   0.500000   0.203404
 Sb52       Sb  -0.500000   0.750000   0.203404
 Sb53       Sb  -0.250000   0.000000   0.203404
 Sb54       Sb  -0.250000   0.250000   0.203404
 Sb55       Sb  -0.250000   0.500000   0.203404
 Sb56       Sb  -0.250000   0.750000   0.203404
 Sb57       Sb   0.000000   0.000000   0.203404
 Sb58       Sb   0.000000   0.250000   0.203404
 Sb59       Sb   0.000000   0.500000   0.203404
 Sb60       Sb   0.000000   0.750000   0.203404
 Sb61       Sb   0.250000   0.000000   0.203404
 Sb62       Sb   0.250000   0.250000   0.203404
 Sb63       Sb   0.250000   0.500000   0.203404
 Sb64       Sb   0.250000   0.750000   0.203404
 Te65       Te  -0.416667   0.166667   0.229625
 Te66       Te  -0.416667   0.416667   0.229625
 Te67       Te  -0.416667   0.666667   0.229625
 Te68       Te  -0.416667   0.916667   0.229625
 Te69       Te  -0.166667   0.166667   0.229625
 Te70       Te  -0.166667   0.416667   0.229625
 Te71       Te  -0.166667   0.666667   0.229625
 Te72       Te  -0.166667   0.916667   0.229625
 Te73       Te   0.083333   0.166667   0.229625
 Te74       Te   0.083333   0.416667   0.229625
 Te75       Te   0.083333   0.666667   0.229625
 Te76       Te   0.083333   0.916667   0.229625
 Te77       Te   0.333333   0.166667   0.229625
 Te78       Te   0.333333   0.416667   0.229625
 Te79       Te   0.333333   0.666667   0.229625
 Te80       Te   0.333333   0.916667   0.229625
 Te81       Te  -0.333333   0.083333   0.279487
 Te82       Te  -0.333333   0.333333   0.279487
 Te83       Te  -0.333333   0.583333   0.279487
 Te84       Te  -0.333333   0.833333   0.279487
 Te85       Te  -0.083333   0.083333   0.279487
 Te86       Te  -0.083333   0.333333   0.279487
 Te87       Te  -0.083333   0.583333   0.279487
 Te88       Te  -0.083333   0.833333   0.279487
 Te89       Te   0.166667   0.083333   0.279487
 Te90       Te   0.166667   0.333333   0.279487
 Te91       Te   0.166667   0.583333   0.279487
 Te92       Te   0.166667   0.833333   0.279487
 Te93       Te   0.416667   0.083333   0.279487
 Te94       Te   0.416667   0.333333   0.279487
 Te95       Te   0.416667   0.583333   0.279487
 Te96       Te   0.416667   0.833333   0.279487
 Sb97       Sb  -0.500000   0.000000   0.305708
 Sb98       Sb  -0.500000   0.250000   0.305708
 Sb99       Sb  -0.500000   0.500000   0.305708
 Sb100      Sb  -0.500000   0.750000   0.305708
 Sb101      Sb  -0.250000   0.000000   0.305708
 Sb102      Sb  -0.250000   0.250000   0.305708
 Sb103      Sb  -0.250000   0.500000   0.305708
 Sb104      Sb  -0.250000   0.750000   0.305708
 Sb105      Sb   0.000000   0.000000   0.305708
 Sb106      Sb   0.000000   0.250000   0.305708
 Sb107      Sb   0.000000   0.500000   0.305708
 Sb108      Sb   0.000000   0.750000   0.305708
 Sb109      Sb   0.250000   0.000000   0.305708
 Sb110      Sb   0.250000   0.250000   0.305708
 Sb111      Sb   0.250000   0.500000   0.305708
 Sb112      Sb   0.250000   0.750000   0.305708
 Te113      Te  -0.416667   0.166667   0.336371
 Te114      Te  -0.416667   0.416667   0.336371
 Te115      Te  -0.416667   0.666667   0.336371
 Te116      Te  -0.416667   0.916667   0.336371
 Te117      Te  -0.166667   0.166667   0.336371
 Te118      Te  -0.166667   0.416667   0.336371
 Te119      Te  -0.166667   0.666667   0.336371
 Te120      Te  -0.166667   0.916667   0.336371
 Te121      Te   0.083333   0.166667   0.336371
 Te122      Te   0.083333   0.416667   0.336371
 Te123      Te   0.083333   0.666667   0.336371
 Te124      Te   0.083333   0.916667   0.336371
 Te125      Te   0.333333   0.166667   0.336371
 Te126      Te   0.333333   0.416667   0.336371
 Te127      Te   0.333333   0.666667   0.336371
 Te128      Te   0.333333   0.916667   0.336371
 Sb129      Sb  -0.333333   0.083333   0.367034
 Sb130      Sb  -0.333333   0.333333   0.367034
 Sb131      Sb  -0.333333   0.583333   0.367034
 Sb132      Sb  -0.333333   0.833333   0.367034
 Sb133      Sb  -0.083333   0.083333   0.367034
 Sb134      Sb  -0.083333   0.333333   0.367034
 Sb135      Sb  -0.083333   0.583333   0.367034
 Sb136      Sb  -0.083333   0.833333   0.367034
 Sb137      Sb   0.166667   0.083333   0.367034
 Sb138      Sb   0.166667   0.333333   0.367034
 Sb139      Sb   0.166667   0.583333   0.367034
 Sb140      Sb   0.166667   0.833333   0.367034
 Sb141      Sb   0.416667   0.083333   0.367034
 Sb142      Sb   0.416667   0.333333   0.367034
 Sb143      Sb   0.416667   0.583333   0.367034
 Sb144      Sb   0.416667   0.833333   0.367034
 Te145      Te  -0.500000   0.000000   0.393255
 Te146      Te  -0.500000   0.250000   0.393255
 Te147      Te  -0.500000   0.500000   0.393255
 Te148      Te  -0.500000   0.750000   0.393255
 Te149      Te  -0.250000   0.000000   0.393255
 Te150      Te  -0.250000   0.250000   0.393255
 Te151      Te  -0.250000   0.500000   0.393255
 Te152      Te  -0.250000   0.750000   0.393255
 Te153      Te   0.000000   0.000000   0.393255
 Te154      Te   0.000000   0.250000   0.393255
 Te155      Te   0.000000   0.500000   0.393255
 Te156      Te   0.000000   0.750000   0.393255
 Te157      Te   0.250000   0.000000   0.393255
 Te158      Te   0.250000   0.250000   0.393255
 Te159      Te   0.250000   0.500000   0.393255
 Te160      Te   0.250000   0.750000   0.393255
 Te161      Te  -0.416667   0.166667   0.443116
 Te162      Te  -0.416667   0.416667   0.443116
 Te163      Te  -0.416667   0.666667   0.443116
 Te164      Te  -0.416667   0.916667   0.443116
 Te165      Te  -0.166667   0.166667   0.443116
 Te166      Te  -0.166667   0.416667   0.443116
 Te167      Te  -0.166667   0.666667   0.443116
 Te168      Te  -0.166667   0.916667   0.443116
 Te169      Te   0.083333   0.166667   0.443116
 Te170      Te   0.083333   0.416667   0.443116
 Te171      Te   0.083333   0.666667   0.443116
 Te172      Te   0.083333   0.916667   0.443116
 Te173      Te   0.333333   0.166667   0.443116
 Te174      Te   0.333333   0.416667   0.443116
 Te175      Te   0.333333   0.666667   0.443116
 Te176      Te   0.333333   0.916667   0.443116
 Sb177      Sb  -0.333333   0.083333   0.469337
 Sb178      Sb  -0.333333   0.333333   0.469337
 Sb179      Sb  -0.333333   0.583333   0.469337
 Sb180      Sb  -0.333333   0.833333   0.469337
 Sb181      Sb  -0.083333   0.083333   0.469337
 Sb182      Sb  -0.083333   0.333333   0.469337
 Sb183      Sb  -0.083333   0.583333   0.469337
 Sb184      Sb  -0.083333   0.833333   0.469337
 Sb185      Sb   0.166667   0.083333   0.469337
 Sb186      Sb   0.166667   0.333333   0.469337
 Sb187      Sb   0.166667   0.583333   0.469337
 Sb188      Sb   0.166667   0.833333   0.469337
 Sb189      Sb   0.416667   0.083333   0.469337
 Sb190      Sb   0.416667   0.333333   0.469337
 Sb191      Sb   0.416667   0.583333   0.469337
 Sb192      Sb   0.416667   0.833333   0.469337
 Te193      Te  -0.500000   0.000000   0.500000
 Te194      Te  -0.500000   0.250000   0.500000
 Te195      Te  -0.500000   0.500000   0.500000
 Te196      Te  -0.500000   0.750000   0.500000
 Te197      Te  -0.250000   0.000000   0.500000
 Te198      Te  -0.250000   0.250000   0.500000
 Te199      Te  -0.250000   0.500000   0.500000
 Te200      Te  -0.250000   0.750000   0.500000
 Te201      Te   0.000000   0.000000   0.500000
 Te202      Te   0.000000   0.250000   0.500000
 Te203      Te   0.000000   0.500000   0.500000
 Te204      Te   0.000000   0.750000   0.500000
 Te205      Te   0.250000   0.000000   0.500000
 Te206      Te   0.250000   0.250000   0.500000
 Te207      Te   0.250000   0.500000   0.500000
 Te208      Te   0.250000   0.750000   0.500000
 Sb209      Sb  -0.416667   0.166667   0.530663
 Sb210      Sb  -0.416667   0.416667   0.530663
 Sb211      Sb  -0.416667   0.666667   0.530663
 Sb212      Sb  -0.416667   0.916667   0.530663
 Sb213      Sb  -0.166667   0.166667   0.530663
 Sb214      Sb  -0.166667   0.416667   0.530663
 Sb215      Sb  -0.166667   0.666667   0.530663
 Sb216      Sb  -0.166667   0.916667   0.530663
 Sb217      Sb   0.083333   0.166667   0.530663
 Sb218      Sb   0.083333   0.416667   0.530663
 Sb219      Sb   0.083333   0.666667   0.530663
 Sb220      Sb   0.083333   0.916667   0.530663
 Sb221      Sb   0.333333   0.166667   0.530663
 Sb222      Sb   0.333333   0.416667   0.530663
 Sb223      Sb   0.333333   0.666667   0.530663
 Sb224      Sb   0.333333   0.916667   0.530663
 Te225      Te  -0.333333   0.083333   0.556884
 Te226      Te  -0.333333   0.333333   0.556884
 Te227      Te  -0.333333   0.583333   0.556884
 Te228      Te  -0.333333   0.833333   0.556884
 Te229      Te  -0.083333   0.083333   0.556884
 Te230      Te  -0.083333   0.333333   0.556884
 Te231      Te  -0.083333   0.583333   0.556884
 Te232      Te  -0.083333   0.833333   0.556884
 Te233      Te   0.166667   0.083333   0.556884
 Te234      Te   0.166667   0.333333   0.556884
 Te235      Te   0.166667   0.583333   0.556884
 Te236      Te   0.166667   0.833333   0.556884
 Te237      Te   0.416667   0.083333   0.556884
 Te238      Te   0.416667   0.333333   0.556884
 Te239      Te   0.416667   0.583333   0.556884
 Te240      Te   0.416667   0.833333   0.556884
 Te241      Te  -0.500000   0.000000   0.606745
 Te242      Te  -0.500000   0.250000   0.606745
 Te243      Te  -0.500000   0.500000   0.606745
 Te244      Te  -0.500000   0.750000   0.606745
 Te245      Te  -0.250000   0.000000   0.606745
 Te246      Te  -0.250000   0.250000   0.606745
 Te247      Te  -0.250000   0.500000   0.606745
 Te248      Te  -0.250000   0.750000   0.606745
 Te249      Te   0.000000   0.000000   0.606745
 Te250      Te   0.000000   0.250000   0.606745
 Te251      Te   0.000000   0.500000   0.606745
 Te252      Te   0.000000   0.750000   0.606745
 Te253      Te   0.250000   0.000000   0.606745
 Te254      Te   0.250000   0.250000   0.606745
 Te255      Te   0.250000   0.500000   0.606745
 Te256      Te   0.250000   0.750000   0.606745
 Sb257      Sb  -0.416667   0.166667   0.632966
 Sb258      Sb  -0.416667   0.416667   0.632966
 Sb259      Sb  -0.416667   0.666667   0.632966
 Sb260      Sb  -0.416667   0.916667   0.632966
 Sb261      Sb  -0.166667   0.166667   0.632966
 Sb262      Sb  -0.166667   0.416667   0.632966
 Sb263      Sb  -0.166667   0.666667   0.632966
 Sb264      Sb  -0.166667   0.916667   0.632966
 Sb265      Sb   0.083333   0.166667   0.632966
 Sb266      Sb   0.083333   0.416667   0.632966
 Sb267      Sb   0.083333   0.666667   0.632966
 Sb268      Sb   0.083333   0.916667   0.632966
 Sb269      Sb   0.333333   0.166667   0.632966
 Sb270      Sb   0.333333   0.416667   0.632966
 Sb271      Sb   0.333333   0.666667   0.632966
 Sb272      Sb   0.333333   0.916667   0.632966
 Te273      Te  -0.333333   0.083333   0.663629
 Te274      Te  -0.333333   0.333333   0.663629
 Te275      Te  -0.333333   0.583333   0.663629
 Te276      Te  -0.333333   0.833333   0.663629
 Te277      Te  -0.083333   0.083333   0.663629
 Te278      Te  -0.083333   0.333333   0.663629
 Te279      Te  -0.083333   0.583333   0.663629
 Te280      Te  -0.083333   0.833333   0.663629
 Te281      Te   0.166667   0.083333   0.663629
 Te282      Te   0.166667   0.333333   0.663629
 Te283      Te   0.166667   0.583333   0.663629
 Te284      Te   0.166667   0.833333   0.663629
 Te285      Te   0.416667   0.083333   0.663629
 Te286      Te   0.416667   0.333333   0.663629
 Te287      Te   0.416667   0.583333   0.663629
 Te288      Te   0.416667   0.833333   0.663629
 Sb289      Sb  -0.500000   0.000000   0.694292
 Sb290      Sb  -0.500000   0.250000   0.694292
 Sb291      Sb  -0.500000   0.500000   0.694292
 Sb292      Sb  -0.500000   0.750000   0.694292
 Sb293      Sb  -0.250000   0.000000   0.694292
 Sb294      Sb  -0.250000   0.250000   0.694292
 Sb295      Sb  -0.250000   0.500000   0.694292
 Sb296      Sb  -0.250000   0.750000   0.694292
 Sb297      Sb   0.000000   0.000000   0.694292
 Sb298      Sb   0.000000   0.250000   0.694292
 Sb299      Sb   0.000000   0.500000   0.694292
 Sb300      Sb   0.000000   0.750000   0.694292
 Sb301      Sb   0.250000   0.000000   0.694292
 Sb302      Sb   0.250000   0.250000   0.694292
 Sb303      Sb   0.250000   0.500000   0.694292
 Sb304      Sb   0.250000   0.750000   0.694292
 Te305      Te  -0.416667   0.166667   0.720513
 Te306      Te  -0.416667   0.416667   0.720513
 Te307      Te  -0.416667   0.666667   0.720513
 Te308      Te  -0.416667   0.916667   0.720513
 Te309      Te  -0.166667   0.166667   0.720513
 Te310      Te  -0.166667   0.416667   0.720513
 Te311      Te  -0.166667   0.666667   0.720513
 Te312      Te  -0.166667   0.916667   0.720513
 Te313      Te   0.083333   0.166667   0.720513
 Te314      Te   0.083333   0.416667   0.720513
 Te315      Te   0.083333   0.666667   0.720513
 Te316      Te   0.083333   0.916667   0.720513
 Te317      Te   0.333333   0.166667   0.720513
 Te318      Te   0.333333   0.416667   0.720513
 Te319      Te   0.333333   0.666667   0.720513
 Te320      Te   0.333333   0.916667   0.720513
 Te321      Te  -0.333333   0.083333   0.770375
 Te322      Te  -0.333333   0.333333   0.770375
 Te323      Te  -0.333333   0.583333   0.770375
 Te324      Te  -0.333333   0.833333   0.770375
 Te325      Te  -0.083333   0.083333   0.770375
 Te326      Te  -0.083333   0.333333   0.770375
 Te327      Te  -0.083333   0.583333   0.770375
 Te328      Te  -0.083333   0.833333   0.770375
 Te329      Te   0.166667   0.083333   0.770375
 Te330      Te   0.166667   0.333333   0.770375
 Te331      Te   0.166667   0.583333   0.770375
 Te332      Te   0.166667   0.833333   0.770375
 Te333      Te   0.416667   0.083333   0.770375
 Te334      Te   0.416667   0.333333   0.770375
 Te335      Te   0.416667   0.583333   0.770375
 Te336      Te   0.416667   0.833333   0.770375
 Sb337      Sb  -0.500000   0.000000   0.796596
 Sb338      Sb  -0.500000   0.250000   0.796596
 Sb339      Sb  -0.500000   0.500000   0.796596
 Sb340      Sb  -0.500000   0.750000   0.796596
 Sb341      Sb  -0.250000   0.000000   0.796596
 Sb342      Sb  -0.250000   0.250000   0.796596
 Sb343      Sb  -0.250000   0.500000   0.796596
 Sb344      Sb  -0.250000   0.750000   0.796596
 Sb345      Sb   0.000000   0.000000   0.796596
 Sb346      Sb   0.000000   0.250000   0.796596
 Sb347      Sb   0.000000   0.500000   0.796596
 Sb348      Sb   0.000000   0.750000   0.796596
 Sb349      Sb   0.250000   0.000000   0.796596
 Sb350      Sb   0.250000   0.250000   0.796596
 Sb351      Sb   0.250000   0.500000   0.796596
 Sb352      Sb   0.250000   0.750000   0.796596
 Te353      Te  -0.416667   0.166667   0.827258
 Te354      Te  -0.416667   0.416667   0.827258
 Te355      Te  -0.416667   0.666667   0.827258
 Te356      Te  -0.416667   0.916667   0.827258
 Te357      Te  -0.166667   0.166667   0.827258
 Te358      Te  -0.166667   0.416667   0.827258
 Te359      Te  -0.166667   0.666667   0.827258
 Te360      Te  -0.166667   0.916667   0.827258
 Te361      Te   0.083333   0.166667   0.827258
 Te362      Te   0.083333   0.416667   0.827258
 Te363      Te   0.083333   0.666667   0.827258
 Te364      Te   0.083333   0.916667   0.827258
 Te365      Te   0.333333   0.166667   0.827258
 Te366      Te   0.333333   0.416667   0.827258
 Te367      Te   0.333333   0.666667   0.827258
 Te368      Te   0.333333   0.916667   0.827258
 Sb369      Sb  -0.333333   0.083333   0.857921
 Sb370      Sb  -0.333333   0.333333   0.857921
 Sb371      Sb  -0.333333   0.583333   0.857921
 Sb372      Sb  -0.333333   0.833333   0.857921
 Sb373      Sb  -0.083333   0.083333   0.857921
 Sb374      Sb  -0.083333   0.333333   0.857921
 Sb375      Sb  -0.083333   0.583333   0.857921
 Sb376      Sb  -0.083333   0.833333   0.857921
 Sb377      Sb   0.166667   0.083333   0.857921
 Sb378      Sb   0.166667   0.333333   0.857921
 Sb379      Sb   0.166667   0.583333   0.857921
 Sb380      Sb   0.166667   0.833333   0.857921
 Sb381      Sb   0.416667   0.083333   0.857921
 Sb382      Sb   0.416667   0.333333   0.857921
 Sb383      Sb   0.416667   0.583333   0.857921
 Sb384      Sb   0.416667   0.833333   0.857921
 Te_surf_385 Te  -0.500000   0.000000   0.884142
 Te_surf_386 Te  -0.500000   0.250000   0.884142
 Te_surf_387 Te  -0.500000   0.500000   0.884142
 Te_surf_388 Te  -0.500000   0.750000   0.884142
 Te_surf_389 Te  -0.250000   0.000000   0.884142
 Te_surf_390 Te  -0.250000   0.250000   0.884142
 Te_surf_391 Te  -0.250000   0.500000   0.884142
 Te_surf_392 Te  -0.250000   0.750000   0.884142
 Te_surf_393 Te   0.000000   0.000000   0.884142
 Te_surf_394 Te   0.000000   0.250000   0.884142
 Te_surf_395 Te   0.000000   0.500000   0.884142
 Te_surf_396 Te   0.000000   0.750000   0.884142
 Te_surf_397 Te   0.250000   0.000000   0.884142
 Te_surf_398 Te   0.250000   0.250000   0.884142
 Te_surf_399 Te   0.250000   0.500000   0.884142
 Te_surf_400 Te   0.250000   0.750000   0.884142
