data_image0
_chemical_formula_structural       Ti268
_chemical_formula_sum              "Ti268"
_cell_length_a       79.4189
_cell_length_b       44.0164
_cell_length_c       39.8431
_cell_angle_alpha    90
_cell_angle_beta     90
_cell_angle_gamma    2.44057

_space_group_name_H-M_alt    "P 1"
_space_group_IT_number       1

loop_
  _space_group_symop_operation_xyz
  'x, y, z'

loop_
  _atom_site_type_symbol
  _atom_site_label
  _atom_site_symmetry_multiplicity
  _atom_site_fract_x
  _atom_site_fract_y
  _atom_site_fract_z
  _atom_site_occupancy
  Ti  Ti1       1.0  0.00000  0.00000  0.12549  1.0000
  Ti  Ti2       1.0  0.51220  0.50239  0.12549  1.0000
  Ti  Ti3       1.0  1.00000  0.67943  0.13112  1.0000
  Ti  Ti4       1.0  0.48780  0.17703  0.13112  1.0000
  Ti  Ti5       1.0  0.97561  0.35407  0.13676  1.0000
  Ti  Ti6       1.0  0.46341  0.85646  0.13676  1.0000
  Ti  Ti7       1.0  0.95122  0.02871  0.14239  1.0000
  Ti  Ti8       1.0  0.43902  0.53110  0.14239  1.0000
  Ti  Ti9       1.0  0.92683  0.70813  0.14802  1.0000
  Ti  Ti10      1.0  0.41463  0.20574  0.14802  1.0000
  Ti  Ti11      1.0  0.90244  0.38278  0.15365  1.0000
  Ti  Ti12      1.0  0.39024  0.88517  0.15365  1.0000
  Ti  Ti13      1.0  0.87805  0.05742  0.15928  1.0000
  Ti  Ti14      1.0  0.36585  0.55981  0.15928  1.0000
  Ti  Ti15      1.0  0.85366  0.73684  0.16491  1.0000
  Ti  Ti16      1.0  0.34146  0.23445  0.16491  1.0000
  Ti  Ti17      1.0  0.82927  0.41148  0.17055  1.0000
  Ti  Ti18      1.0  0.31707  0.91388  0.17055  1.0000
  Ti  Ti19      1.0  0.80488  0.08612  0.17618  1.0000
  Ti  Ti20      1.0  0.29268  0.58852  0.17618  1.0000
  Ti  Ti21      1.0  0.78049  0.76555  0.18181  1.0000
  Ti  Ti22      1.0  0.26829  0.26316  0.18181  1.0000
  Ti  Ti23      1.0  0.75610  0.44019  0.18744  1.0000
  Ti  Ti24      1.0  0.24390  0.94258  0.18744  1.0000
  Ti  Ti25      1.0  0.73171  0.11483  0.19307  1.0000
  Ti  Ti26      1.0  0.21951  0.61722  0.19307  1.0000
  Ti  Ti27      1.0  0.70732  0.79426  0.19870  1.0000
  Ti  Ti28      1.0  0.19512  0.29187  0.19870  1.0000
  Ti  Ti29      1.0  0.68293  0.46890  0.20434  1.0000
  Ti  Ti30      1.0  0.17073  0.97129  0.20434  1.0000
  Ti  Ti31      1.0  0.65854  0.14354  0.20997  1.0000
  Ti  Ti32      1.0  0.14634  0.64593  0.20997  1.0000
  Ti  Ti33      1.0  0.63415  0.82297  0.21560  1.0000
  Ti  Ti34      1.0  0.12195  0.32057  0.21560  1.0000
  Ti  Ti35      1.0  0.60976  0.49761  0.22123  1.0000
  Ti  Ti36      1.0  0.09756  0.00000  0.22123  1.0000
  Ti  Ti37      1.0  0.58537  0.17225  0.22686  1.0000
  Ti  Ti38      1.0  0.07317  0.67464  0.22686  1.0000
  Ti  Ti39      1.0  0.56098  0.85167  0.23249  1.0000
  Ti  Ti40      1.0  0.04878  0.34928  0.23249  1.0000
  Ti  Ti41      1.0  0.53659  0.52632  0.23813  1.0000
  Ti  Ti42      1.0  0.02439  0.02392  0.23813  1.0000
  Ti  Ti43      1.0  0.51220  0.20096  0.24376  1.0000
  Ti  Ti44      1.0  0.00000  0.70335  0.24376  1.0000
  Ti  Ti45      1.0  0.48780  0.88038  0.24939  1.0000
  Ti  Ti46      1.0  0.00000  0.37799  0.24939  1.0000
  Ti  Ti47      1.0  0.46341  0.55502  0.25502  1.0000
  Ti  Ti48      1.0  0.97561  0.05263  0.25502  1.0000
  Ti  Ti49      1.0  0.43902  0.22967  0.26065  1.0000
  Ti  Ti50      1.0  0.95122  0.73206  0.26065  1.0000
  Ti  Ti51      1.0  0.41463  0.90909  0.26628  1.0000
  Ti  Ti52      1.0  0.92683  0.40670  0.26628  1.0000
  Ti  Ti53      1.0  0.39024  0.58373  0.27192  1.0000
  Ti  Ti54      1.0  0.90244  0.08134  0.27192  1.0000
  Ti  Ti55      1.0  0.36585  0.25837  0.27755  1.0000
  Ti  Ti56      1.0  0.87805  0.76077  0.27755  1.0000
  Ti  Ti57      1.0  0.34146  0.93780  0.28318  1.0000
  Ti  Ti58      1.0  0.85366  0.43541  0.28318  1.0000
  Ti  Ti59      1.0  0.31707  0.61244  0.28881  1.0000
  Ti  Ti60      1.0  0.82927  0.11005  0.28881  1.0000
  Ti  Ti61      1.0  0.29268  0.28708  0.29444  1.0000
  Ti  Ti62      1.0  0.80488  0.78947  0.29444  1.0000
  Ti  Ti63      1.0  0.26829  0.96651  0.30007  1.0000
  Ti  Ti64      1.0  0.78049  0.46411  0.30007  1.0000
  Ti  Ti65      1.0  0.24390  0.64115  0.30571  1.0000
  Ti  Ti66      1.0  0.75610  0.13876  0.30571  1.0000
  Ti  Ti67      1.0  0.21951  0.31579  0.31134  1.0000
  Ti  Ti68      1.0  0.73171  0.81818  0.31134  1.0000
  Ti  Ti69      1.0  0.19512  0.99522  0.31697  1.0000
  Ti  Ti70      1.0  0.70732  0.49282  0.31697  1.0000
  Ti  Ti71      1.0  0.17073  0.66986  0.32260  1.0000
  Ti  Ti72      1.0  0.68293  0.16746  0.32260  1.0000
  Ti  Ti73      1.0  0.14634  0.34450  0.32823  1.0000
  Ti  Ti74      1.0  0.65854  0.84689  0.32823  1.0000
  Ti  Ti75      1.0  0.12195  0.01914  0.33386  1.0000
  Ti  Ti76      1.0  0.63415  0.52153  0.33386  1.0000
  Ti  Ti77      1.0  0.09756  0.69856  0.33950  1.0000
  Ti  Ti78      1.0  0.60976  0.19617  0.33950  1.0000
  Ti  Ti79      1.0  0.07317  0.37321  0.34513  1.0000
  Ti  Ti80      1.0  0.58537  0.87560  0.34513  1.0000
  Ti  Ti81      1.0  0.04878  0.04785  0.35076  1.0000
  Ti  Ti82      1.0  0.56098  0.55024  0.35076  1.0000
  Ti  Ti83      1.0  0.02439  0.72727  0.35639  1.0000
  Ti  Ti84      1.0  0.53659  0.22488  0.35639  1.0000
  Ti  Ti85      1.0  0.00000  0.40191  0.36202  1.0000
  Ti  Ti86      1.0  0.51220  0.90431  0.36202  1.0000
  Ti  Ti87      1.0  1.00000  0.07656  0.36766  1.0000
  Ti  Ti88      1.0  0.48780  0.57895  0.36766  1.0000
  Ti  Ti89      1.0  0.97561  0.75598  0.37329  1.0000
  Ti  Ti90      1.0  0.46341  0.25359  0.37329  1.0000
  Ti  Ti91      1.0  0.95122  0.43062  0.37892  1.0000
  Ti  Ti92      1.0  0.43902  0.93301  0.37892  1.0000
  Ti  Ti93      1.0  0.92683  0.10526  0.38455  1.0000
  Ti  Ti94      1.0  0.41463  0.60766  0.38455  1.0000
  Ti  Ti95      1.0  0.90244  0.78469  0.39018  1.0000
  Ti  Ti96      1.0  0.39024  0.28230  0.39018  1.0000
  Ti  Ti97      1.0  0.87805  0.45933  0.39581  1.0000
  Ti  Ti98      1.0  0.36585  0.96172  0.39581  1.0000
  Ti  Ti99      1.0  0.85366  0.13397  0.40145  1.0000
  Ti  Ti100     1.0  0.34146  0.63636  0.40145  1.0000
  Ti  Ti101     1.0  0.82927  0.81340  0.40708  1.0000
  Ti  Ti102     1.0  0.31707  0.31100  0.40708  1.0000
  Ti  Ti103     1.0  0.80488  0.48804  0.41271  1.0000
  Ti  Ti104     1.0  0.29268  0.99043  0.41271  1.0000
  Ti  Ti105     1.0  0.78049  0.16268  0.41834  1.0000
  Ti  Ti106     1.0  0.26829  0.66507  0.41834  1.0000
  Ti  Ti107     1.0  0.75610  0.84211  0.42397  1.0000
  Ti  Ti108     1.0  0.24390  0.33971  0.42397  1.0000
  Ti  Ti109     1.0  0.73171  0.51675  0.42960  1.0000
  Ti  Ti110     1.0  0.21951  0.01435  0.42960  1.0000
  Ti  Ti111     1.0  0.70732  0.19139  0.43524  1.0000
  Ti  Ti112     1.0  0.19512  0.69378  0.43524  1.0000
  Ti  Ti113     1.0  0.68293  0.87081  0.44087  1.0000
  Ti  Ti114     1.0  0.17073  0.36842  0.44087  1.0000
  Ti  Ti115     1.0  0.65854  0.54545  0.44650  1.0000
  Ti  Ti116     1.0  0.14634  0.04306  0.44650  1.0000
  Ti  Ti117     1.0  0.63415  0.22010  0.45213  1.0000
  Ti  Ti118     1.0  0.12195  0.72249  0.45213  1.0000
  Ti  Ti119     1.0  0.60976  0.89952  0.45776  1.0000
  Ti  Ti120     1.0  0.09756  0.39713  0.45776  1.0000
  Ti  Ti121     1.0  0.58537  0.57416  0.46339  1.0000
  Ti  Ti122     1.0  0.07317  0.07177  0.46339  1.0000
  Ti  Ti123     1.0  0.56098  0.24880  0.46903  1.0000
  Ti  Ti124     1.0  0.04878  0.75120  0.46903  1.0000
  Ti  Ti125     1.0  0.53659  0.92823  0.47466  1.0000
  Ti  Ti126     1.0  0.02439  0.42584  0.47466  1.0000
  Ti  Ti127     1.0  0.51220  0.60287  0.48029  1.0000
  Ti  Ti128     1.0  0.00000  0.10048  0.48029  1.0000
  Ti  Ti129     1.0  0.48780  0.27751  0.48592  1.0000
  Ti  Ti130     1.0  1.00000  0.77990  0.48592  1.0000
  Ti  Ti131     1.0  0.46341  0.95694  0.49155  1.0000
  Ti  Ti132     1.0  0.97561  0.45455  0.49155  1.0000
  Ti  Ti133     1.0  0.43902  0.63158  0.49718  1.0000
  Ti  Ti134     1.0  0.95122  0.12919  0.49718  1.0000
  Ti  Ti135     1.0  0.00000  0.00000  0.87451  1.0000
  Ti  Ti136     1.0  0.51220  0.50239  0.87451  1.0000
  Ti  Ti137     1.0  1.00000  0.67943  0.86888  1.0000
  Ti  Ti138     1.0  0.48780  0.17703  0.86888  1.0000
  Ti  Ti139     1.0  0.97561  0.35407  0.86324  1.0000
  Ti  Ti140     1.0  0.46341  0.85646  0.86324  1.0000
  Ti  Ti141     1.0  0.95122  0.02871  0.85761  1.0000
  Ti  Ti142     1.0  0.43902  0.53110  0.85761  1.0000
  Ti  Ti143     1.0  0.92683  0.70813  0.85198  1.0000
  Ti  Ti144     1.0  0.41463  0.20574  0.85198  1.0000
  Ti  Ti145     1.0  0.90244  0.38278  0.84635  1.0000
  Ti  Ti146     1.0  0.39024  0.88517  0.84635  1.0000
  Ti  Ti147     1.0  0.87805  0.05742  0.84072  1.0000
  Ti  Ti148     1.0  0.36585  0.55981  0.84072  1.0000
  Ti  Ti149     1.0  0.85366  0.73684  0.83509  1.0000
  Ti  Ti150     1.0  0.34146  0.23445  0.83509  1.0000
  Ti  Ti151     1.0  0.82927  0.41148  0.82945  1.0000
  Ti  Ti152     1.0  0.31707  0.91388  0.82945  1.0000
  Ti  Ti153     1.0  0.80488  0.08612  0.82382  1.0000
  Ti  Ti154     1.0  0.29268  0.58852  0.82382  1.0000
  Ti  Ti155     1.0  0.78049  0.76555  0.81819  1.0000
  Ti  Ti156     1.0  0.26829  0.26316  0.81819  1.0000
  Ti  Ti157     1.0  0.75610  0.44019  0.81256  1.0000
  Ti  Ti158     1.0  0.24390  0.94258  0.81256  1.0000
  Ti  Ti159     1.0  0.73171  0.11483  0.80693  1.0000
  Ti  Ti160     1.0  0.21951  0.61722  0.80693  1.0000
  Ti  Ti161     1.0  0.70732  0.79426  0.80130  1.0000
  Ti  Ti162     1.0  0.19512  0.29187  0.80130  1.0000
  Ti  Ti163     1.0  0.68293  0.46890  0.79566  1.0000
  Ti  Ti164     1.0  0.17073  0.97129  0.79566  1.0000
  Ti  Ti165     1.0  0.65854  0.14354  0.79003  1.0000
  Ti  Ti166     1.0  0.14634  0.64593  0.79003  1.0000
  Ti  Ti167     1.0  0.63415  0.82297  0.78440  1.0000
  Ti  Ti168     1.0  0.12195  0.32057  0.78440  1.0000
  Ti  Ti169     1.0  0.60976  0.49761  0.77877  1.0000
  Ti  Ti170     1.0  0.09756  0.00000  0.77877  1.0000
  Ti  Ti171     1.0  0.58537  0.17225  0.77314  1.0000
  Ti  Ti172     1.0  0.07317  0.67464  0.77314  1.0000
  Ti  Ti173     1.0  0.56098  0.85167  0.76751  1.0000
  Ti  Ti174     1.0  0.04878  0.34928  0.76751  1.0000
  Ti  Ti175     1.0  0.53659  0.52632  0.76187  1.0000
  Ti  Ti176     1.0  0.02439  0.02392  0.76187  1.0000
  Ti  Ti177     1.0  0.51220  0.20096  0.75624  1.0000
  Ti  Ti178     1.0  0.00000  0.70335  0.75624  1.0000
  Ti  Ti179     1.0  0.48780  0.88038  0.75061  1.0000
  Ti  Ti180     1.0  0.00000  0.37799  0.75061  1.0000
  Ti  Ti181     1.0  0.46341  0.55502  0.74498  1.0000
  Ti  Ti182     1.0  0.97561  0.05263  0.74498  1.0000
  Ti  Ti183     1.0  0.43902  0.22967  0.73935  1.0000
  Ti  Ti184     1.0  0.95122  0.73206  0.73935  1.0000
  Ti  Ti185     1.0  0.41463  0.90909  0.73372  1.0000
  Ti  Ti186     1.0  0.92683  0.40670  0.73372  1.0000
  Ti  Ti187     1.0  0.39024  0.58373  0.72808  1.0000
  Ti  Ti188     1.0  0.90244  0.08134  0.72808  1.0000
  Ti  Ti189     1.0  0.36585  0.25837  0.72245  1.0000
  Ti  Ti190     1.0  0.87805  0.76077  0.72245  1.0000
  Ti  Ti191     1.0  0.34146  0.93780  0.71682  1.0000
  Ti  Ti192     1.0  0.85366  0.43541  0.71682  1.0000
  Ti  Ti193     1.0  0.31707  0.61244  0.71119  1.0000
  Ti  Ti194     1.0  0.82927  0.11005  0.71119  1.0000
  Ti  Ti195     1.0  0.29268  0.28708  0.70556  1.0000
  Ti  Ti196     1.0  0.80488  0.78947  0.70556  1.0000
  Ti  Ti197     1.0  0.26829  0.96651  0.69993  1.0000
  Ti  Ti198     1.0  0.78049  0.46411  0.69993  1.0000
  Ti  Ti199     1.0  0.24390  0.64115  0.69429  1.0000
  Ti  Ti200     1.0  0.75610  0.13876  0.69429  1.0000
  Ti  Ti201     1.0  0.21951  0.31579  0.68866  1.0000
  Ti  Ti202     1.0  0.73171  0.81818  0.68866  1.0000
  Ti  Ti203     1.0  0.19512  0.99522  0.68303  1.0000
  Ti  Ti204     1.0  0.70732  0.49282  0.68303  1.0000
  Ti  Ti205     1.0  0.17073  0.66986  0.67740  1.0000
  Ti  Ti206     1.0  0.68293  0.16746  0.67740  1.0000
  Ti  Ti207     1.0  0.14634  0.34450  0.67177  1.0000
  Ti  Ti208     1.0  0.65854  0.84689  0.67177  1.0000
  Ti  Ti209     1.0  0.12195  0.01914  0.66614  1.0000
  Ti  Ti210     1.0  0.63415  0.52153  0.66614  1.0000
  Ti  Ti211     1.0  0.09756  0.69856  0.66050  1.0000
  Ti  Ti212     1.0  0.60976  0.19617  0.66050  1.0000
  Ti  Ti213     1.0  0.07317  0.37321  0.65487  1.0000
  Ti  Ti214     1.0  0.58537  0.87560  0.65487  1.0000
  Ti  Ti215     1.0  0.04878  0.04785  0.64924  1.0000
  Ti  Ti216     1.0  0.56098  0.55024  0.64924  1.0000
  Ti  Ti217     1.0  0.02439  0.72727  0.64361  1.0000
  Ti  Ti218     1.0  0.53659  0.22488  0.64361  1.0000
  Ti  Ti219     1.0  0.00000  0.40191  0.63798  1.0000
  Ti  Ti220     1.0  0.51220  0.90431  0.63798  1.0000
  Ti  Ti221     1.0  1.00000  0.07656  0.63234  1.0000
  Ti  Ti222     1.0  0.48780  0.57895  0.63234  1.0000
  Ti  Ti223     1.0  0.97561  0.75598  0.62671  1.0000
  Ti  Ti224     1.0  0.46341  0.25359  0.62671  1.0000
  Ti  Ti225     1.0  0.95122  0.43062  0.62108  1.0000
  Ti  Ti226     1.0  0.43902  0.93301  0.62108  1.0000
  Ti  Ti227     1.0  0.92683  0.10526  0.61545  1.0000
  Ti  Ti228     1.0  0.41463  0.60766  0.61545  1.0000
  Ti  Ti229     1.0  0.90244  0.78469  0.60982  1.0000
  Ti  Ti230     1.0  0.39024  0.28230  0.60982  1.0000
  Ti  Ti231     1.0  0.87805  0.45933  0.60419  1.0000
  Ti  Ti232     1.0  0.36585  0.96172  0.60419  1.0000
  Ti  Ti233     1.0  0.85366  0.13397  0.59855  1.0000
  Ti  Ti234     1.0  0.34146  0.63636  0.59855  1.0000
  Ti  Ti235     1.0  0.82927  0.81340  0.59292  1.0000
  Ti  Ti236     1.0  0.31707  0.31100  0.59292  1.0000
  Ti  Ti237     1.0  0.80488  0.48804  0.58729  1.0000
  Ti  Ti238     1.0  0.29268  0.99043  0.58729  1.0000
  Ti  Ti239     1.0  0.78049  0.16268  0.58166  1.0000
  Ti  Ti240     1.0  0.26829  0.66507  0.58166  1.0000
  Ti  Ti241     1.0  0.75610  0.84211  0.57603  1.0000
  Ti  Ti242     1.0  0.24390  0.33971  0.57603  1.0000
  Ti  Ti243     1.0  0.73171  0.51675  0.57040  1.0000
  Ti  Ti244     1.0  0.21951  0.01435  0.57040  1.0000
  Ti  Ti245     1.0  0.70732  0.19139  0.56476  1.0000
  Ti  Ti246     1.0  0.19512  0.69378  0.56476  1.0000
  Ti  Ti247     1.0  0.68293  0.87081  0.55913  1.0000
  Ti  Ti248     1.0  0.17073  0.36842  0.55913  1.0000
  Ti  Ti249     1.0  0.65854  0.54545  0.55350  1.0000
  Ti  Ti250     1.0  0.14634  0.04306  0.55350  1.0000
  Ti  Ti251     1.0  0.63415  0.22010  0.54787  1.0000
  Ti  Ti252     1.0  0.12195  0.72249  0.54787  1.0000
  Ti  Ti253     1.0  0.60976  0.89952  0.54224  1.0000
  Ti  Ti254     1.0  0.09756  0.39713  0.54224  1.0000
  Ti  Ti255     1.0  0.58537  0.57416  0.53661  1.0000
  Ti  Ti256     1.0  0.07317  0.07177  0.53661  1.0000
  Ti  Ti257     1.0  0.56098  0.24880  0.53097  1.0000
  Ti  Ti258     1.0  0.04878  0.75120  0.53097  1.0000
  Ti  Ti259     1.0  0.53659  0.92823  0.52534  1.0000
  Ti  Ti260     1.0  0.02439  0.42584  0.52534  1.0000
  Ti  Ti261     1.0  0.51220  0.60287  0.51971  1.0000
  Ti  Ti262     1.0  0.00000  0.10048  0.51971  1.0000
  Ti  Ti263     1.0  0.48780  0.27751  0.51408  1.0000
  Ti  Ti264     1.0  1.00000  0.77990  0.51408  1.0000
  Ti  Ti265     1.0  0.46341  0.95694  0.50845  1.0000
  Ti  Ti266     1.0  0.97561  0.45455  0.50845  1.0000
  Ti  Ti267     1.0  0.43902  0.63158  0.50282  1.0000
  Ti  Ti268     1.0  0.95122  0.12919  0.50282  1.0000
